# Packages
 &PACKAGES
 useOBCS        = .TRUE.,
 useEXF         = .TRUE.,
 useGMREDI      = .TRUE.,
 useSEAICE      = .TRUE.,
 useKPP         = .TRUE.,
 useSALT_PLUME  = .TRUE.,
 useDiagnostics = .TRUE.,
 useECCO        = .TRUE.,
 useCTRL        = .TRUE.,
 useProfiles    = .FALSE.,
 useAUTODIFF    = .TRUE.,
 useSMOOTH      = .TRUE.,
 useLAYERS      = .FALSE.,
#
# useGrdchk=.FALSE.,
 /
