 &SALT_PLUME_PARM01
 CriterionType      = 2,
 SaltPlumeCriterion = 0.021D0,
 SPovershoot        = 1.0D0,
 PlumeMethod        = 1,
 Npower             = 4,
 SPsalFRAC          = 1.0,
 SPinflectionPoint  = 0.95,
# following param only for sp vol
# SPbrineSconst      = 40.0,
 &

